New England/PSSE Cases/Medium/Summer69Tight.RAW
 0,    100.00, 33, 0, 0, 60.00       / September 14, 2017 21:26:40; Simulator Version 19; BuildDate 2016_7_14


    1,'1           ', 345.0000,2,   1,   1,   1,1.02000,   0.4720, 1.06000, 1.00000, 1.06000, 1.00000
    2,'2           ', 345.0000,1,   1,   1,   1,1.01793, -14.7280, 1.04000, 0.95000, 1.04000, 0.95000
    3,'3           ', 138.0000,2,   1,   1,   1,1.02000,  -3.3541, 1.06000, 1.00000, 1.06000, 1.00000
    4,'4           ', 138.0000,1,   1,   1,   1,0.97031, -15.7804, 1.04000, 0.95000, 1.04000, 0.95000
    5,'5           ', 230.0000,1,   1,   1,   1,0.98620, -11.0497, 1.04000, 0.95000, 1.04000, 0.95000
    6,'6           ', 138.0000,1,   1,   1,   1,1.00326,  -6.9548, 1.04000, 0.95000, 1.04000, 0.95000
    7,'7           ', 138.0000,2,   1,   1,   1,1.02000,  -7.6719, 1.06000, 1.00000, 1.06000, 1.00000
    8,'8           ', 230.0000,2,   1,   1,   1,1.02000,  -5.9725, 1.06000, 1.00000, 1.06000, 1.00000
    9,'9           ', 345.0000,1,   1,   1,   1,1.02627,  -7.7803, 1.04000, 0.95000, 1.04000, 0.95000
   10,'10          ', 138.0000,3,   1,   1,   1,1.02000,   0.0000, 1.06000, 1.00000, 1.06000, 1.00000
   11,'11          ', 138.0000,1,   1,   1,   1,1.01589,  -1.1833, 1.04000, 0.95000, 1.04000, 0.95000
   12,'12          ', 138.0000,1,   1,   1,   1,1.01515,  -2.0191, 1.04000, 0.95000, 1.04000, 0.95000
   13,'13          ', 345.0000,1,   1,   1,   1,1.01556,  -4.1272, 1.04000, 0.95000, 1.04000, 0.95000
   14,'14          ', 230.0000,1,   1,   1,   1,1.01036, -11.4798, 1.04000, 0.95000, 1.04000, 0.95000
   15,'15          ', 230.0000,1,   1,   1,   1,0.99720, -14.5733, 1.04000, 0.95000, 1.04000, 0.95000
   16,'16          ', 138.0000,1,   1,   1,   1,1.00021, -21.0382, 1.04000, 0.95000, 1.04000, 0.95000
   17,'17          ', 138.0000,1,   1,   1,   1,0.97064, -22.9629, 1.04000, 0.95000, 1.04000, 0.95000
   18,'18          ', 138.0000,1,   1,   1,   1,0.95848, -17.7754, 1.04000, 0.95000, 1.04000, 0.95000
   19,'19          ', 138.0000,1,   1,   1,   1,0.97819, -19.2362, 1.04000, 0.95000, 1.04000, 0.95000
   20,'20          ',  69.0000,1,   1,   1,   1,0.98659, -12.0207, 1.04000, 0.95000, 1.04000, 0.95000
   21,'21          ', 138.0000,1,   1,   1,   1,0.96587, -24.9614, 1.04000, 0.95000, 1.04000, 0.95000
   22,'22          ', 230.0000,1,   1,   1,   1,0.98809, -13.7083, 1.04000, 0.95000, 1.04000, 0.95000
   23,'23          ', 230.0000,1,   1,   1,   1,0.99459, -12.8953, 1.04000, 0.95000, 1.04000, 0.95000
   24,'24          ', 230.0000,2,   1,   1,   1,1.02000, -15.1527, 1.06000, 1.00000, 1.06000, 1.00000
   25,'25          ', 230.0000,1,   1,   1,   1,0.99787, -15.3175, 1.04000, 0.95000, 1.04000, 0.95000
   26,'26          ', 345.0000,2,   1,   1,   1,1.02000, -24.0785, 1.06000, 1.00000, 1.06000, 1.00000
   27,'27          ', 230.0000,1,   1,   1,   1,0.96822, -27.1837, 1.04000, 0.95000, 1.04000, 0.95000
   28,'28          ', 138.0000,2,   1,   1,   1,1.02000,  -8.1568, 1.06000, 1.00000, 1.06000, 1.00000
   29,'29          ', 138.0000,1,   1,   1,   1,1.00765,   0.3993, 1.04000, 0.95000, 1.04000, 0.95000
   30,'30          ',  14.0000,2,   1,   1,   1,1.02000, -12.9658, 1.06000, 1.00000, 1.06000, 1.00000
   31,'31          ',  14.0000,2,   1,   1,   1,1.02000,   0.5776, 1.06000, 1.00000, 1.06000, 1.00000
   32,'32          ',  14.0000,2,   1,   1,   1,1.02000,   5.0522, 1.06000, 1.00000, 1.06000, 1.00000
   33,'33          ',  14.0000,2,   1,   1,   1,1.02000, -16.9316, 1.06000, 1.00000, 1.06000, 1.00000
   34,'34          ',  14.0000,2,   1,   1,   1,1.02000,  -4.6099, 1.06000, 1.00000, 1.06000, 1.00000
   35,'35          ',  14.0000,2,   1,   1,   1,1.02000,  -6.1289, 1.06000, 1.00000, 1.06000, 1.00000
   36,'36          ',  14.0000,2,   1,   1,   1,1.02000,  -6.8563, 1.06000, 1.00000, 1.06000, 1.00000
   37,'37          ',  14.0000,2,   1,   1,   1,1.02000, -10.3798, 1.06000, 1.00000, 1.06000, 1.00000
   38,'38          ',  14.0000,2,   1,   1,   1,1.02000,   5.4580, 1.06000, 1.00000, 1.06000, 1.00000
   39,'39          ', 345.0000,1,   1,   1,   1,1.01294, -21.8443, 1.04000, 0.95000, 1.04000, 0.95000
   40,'40          ', 345.0000,1,   1,   1,   1,1.00780, -25.6670, 1.04000, 0.95000, 1.04000, 0.95000
   41,'41          ', 345.0000,1,   1,   1,   1,0.97915, -26.5274, 1.04000, 0.95000, 1.04000, 0.95000
   42,'42          ', 345.0000,1,   1,   1,   1,1.01356, -23.3876, 1.04000, 0.95000, 1.04000, 0.95000
   43,'43          ', 345.0000,1,   1,   1,   1,1.01474, -24.5191, 1.04000, 0.95000, 1.04000, 0.95000
   44,'44          ', 230.0000,1,   1,   1,   1,1.00885,  -8.7640, 1.04000, 0.95000, 1.04000, 0.95000
   45,'45          ', 345.0000,1,   1,   1,   1,1.01297,  -7.0924, 1.04000, 0.95000, 1.04000, 0.95000
   46,'46          ', 138.0000,1,   1,   1,   1,0.96526, -14.9710, 1.04000, 0.95000, 1.04000, 0.95000
   47,'47          ', 138.0000,1,   1,   1,   1,0.94106, -21.1211, 1.04000, 0.95000, 1.04000, 0.95000
   48,'48          ', 345.0000,1,   1,   1,   1,0.96283, -16.3116, 1.04000, 0.95000, 1.04000, 0.95000
   49,'49          ', 138.0000,2,   1,   1,   1,1.02000,  -7.9232, 1.06000, 1.00000, 1.06000, 1.00000
   50,'50          ', 138.0000,1,   1,   1,   1,0.97661, -13.6109, 1.04000, 0.95000, 1.04000, 0.95000
   51,'51          ', 138.0000,1,   1,   1,   1,0.97627, -17.0420, 1.04000, 0.95000, 1.04000, 0.95000
   52,'52          ', 345.0000,2,   1,   1,   1,1.02000,  -5.6620, 1.06000, 1.00000, 1.06000, 1.00000
   53,'53          ', 138.0000,1,   1,   1,   1,0.96670, -16.6092, 1.04000, 0.95000, 1.04000, 0.95000
   54,'54          ', 230.0000,2,   1,   1,   1,1.02000,  -5.2199, 1.06000, 1.00000, 1.06000, 1.00000
   55,'55          ', 230.0000,1,   1,   1,   1,1.00400, -10.2966, 1.04000, 0.95000, 1.04000, 0.95000
   56,'56          ', 345.0000,2,   1,   1,   1,1.02000, -11.1985, 1.06000, 1.00000, 1.06000, 1.00000
   57,'57          ', 138.0000,1,   1,   1,   1,0.94238, -19.7186, 1.04000, 0.95000, 1.04000, 0.95000
   58,'58          ', 345.0000,1,   1,   1,   1,0.99390, -12.1751, 1.04000, 0.95000, 1.04000, 0.95000
   59,'59          ', 345.0000,1,   1,   1,   1,1.00774, -14.6595, 1.04000, 0.95000, 1.04000, 0.95000
   60,'60          ', 138.0000,1,   1,   1,   1,0.94221, -19.8109, 1.04000, 0.95000, 1.04000, 0.95000
   61,'61          ', 230.0000,1,   1,   1,   1,1.00225, -16.9934, 1.04000, 0.95000, 1.04000, 0.95000
   62,'62          ', 345.0000,1,   1,   1,   1,0.98487, -13.2371, 1.04000, 0.95000, 1.04000, 0.95000
   63,'63          ', 138.0000,1,   1,   1,   1,0.94136, -19.9455, 1.04000, 0.95000, 1.04000, 0.95000
   64,'64          ', 138.0000,1,   1,   1,   1,0.95971, -16.8047, 1.04000, 0.95000, 1.04000, 0.95000
   65,'65          ', 138.0000,1,   1,   1,   1,0.99116, -11.7040, 1.04000, 0.95000, 1.04000, 0.95000
   66,'66          ', 345.0000,1,   1,   1,   1,0.99853, -12.0522, 1.04000, 0.95000, 1.04000, 0.95000
   67,'67          ', 138.0000,1,   1,   1,   1,0.96136, -16.8467, 1.04000, 0.95000, 1.04000, 0.95000
   68,'68          ', 138.0000,1,   1,   1,   1,0.97524, -15.0194, 1.04000, 0.95000, 1.04000, 0.95000
   69,'69          ', 345.0000,2,   1,   1,   1,1.02000,  -4.0446, 1.06000, 1.00000, 1.06000, 1.00000
   70,'70          ', 138.0000,1,   1,   1,   1,0.99654,  -5.2655, 1.04000, 0.95000, 1.04000, 0.95000
   71,'71          ', 345.0000,1,   1,   1,   1,1.00670, -11.4467, 1.04000, 0.95000, 1.04000, 0.95000
   72,'72          ', 138.0000,2,   1,   1,   1,0.98034, -16.9692, 1.06000, 1.00000, 1.06000, 1.00000
   73,'73          ', 138.0000,1,   1,   1,   1,0.97709, -17.1550, 1.04000, 0.95000, 1.04000, 0.95000
   74,'74          ', 345.0000,1,   1,   1,   1,0.98509, -12.8345, 1.04000, 0.95000, 1.04000, 0.95000
   75,'75          ', 138.0000,1,   1,   1,   1,0.96046, -16.6381, 1.04000, 0.95000, 1.04000, 0.95000
   76,'76          ', 345.0000,2,   1,   1,   1,1.02000, -10.2994, 1.06000, 1.00000, 1.06000, 1.00000
   77,'77          ', 138.0000,1,   1,   1,   1,0.98834, -10.3770, 1.04000, 0.95000, 1.04000, 0.95000
   78,'78          ', 345.0000,2,   1,   1,   1,1.02000, -18.9033, 1.06000, 1.00000, 1.06000, 1.00000
   79,'79          ', 345.0000,1,   1,   1,   1,1.03576, -22.5674, 1.04000, 0.95000, 1.04000, 0.95000
   80,'80          ', 345.0000,2,   1,   1,   1,1.02000, -11.3113, 1.06000, 1.00000, 1.06000, 1.00000
   81,'81          ', 345.0000,1,   1,   1,   1,1.01761, -12.2074, 1.04000, 0.95000, 1.04000, 0.95000
   82,'82          ', 345.0000,2,   1,   1,   1,1.02000,  -9.3978, 1.06000, 1.00000, 1.06000, 1.00000
   83,'83          ', 345.0000,1,   1,   1,   1,1.01941, -10.0958, 1.04000, 0.95000, 1.04000, 0.95000
   84,'84          ', 138.0000,2,   1,   1,   1,1.02000,  -5.4788, 1.06000, 1.00000, 1.06000, 1.00000
   85,'85          ', 230.0000,1,   1,   1,   1,0.97227, -15.2416, 1.04000, 0.95000, 1.04000, 0.95000
   86,'86          ', 138.0000,1,   1,   1,   1,0.97227, -14.7202, 1.04000, 0.95000, 1.04000, 0.95000
   87,'87          ', 345.0000,1,   1,   1,   1,1.04040, -20.2124, 1.04000, 0.95000, 1.04000, 0.95000
   88,'88          ', 138.0000,1,   1,   1,   1,1.00925,  -9.9606, 1.04000, 0.95000, 1.04000, 0.95000
   89,'89          ', 138.0000,1,   1,   1,   1,0.94345, -15.6966, 1.04000, 0.95000, 1.04000, 0.95000
   90,'90          ', 230.0000,1,   1,   1,   1,0.98098, -13.9478, 1.04000, 0.95000, 1.04000, 0.95000
   91,'91          ', 230.0000,1,   1,   1,   1,0.95884, -16.3290, 1.04000, 0.95000, 1.04000, 0.95000
   92,'92          ', 345.0000,1,   1,   1,   1,0.97000, -18.4691, 1.04000, 0.95000, 1.04000, 0.95000
   93,'93          ', 345.0000,1,   1,   1,   1,0.97358, -18.6868, 1.04000, 0.95000, 1.04000, 0.95000
   94,'94          ', 138.0000,1,   1,   1,   1,0.98318, -21.1847, 1.04000, 0.95000, 1.04000, 0.95000
   95,'95          ', 138.0000,1,   1,   1,   1,0.96221, -22.3027, 1.04000, 0.95000, 1.04000, 0.95000
   96,'96          ', 138.0000,1,   1,   1,   1,0.96192, -22.0553, 1.04000, 0.95000, 1.04000, 0.95000
   97,'97          ', 345.0000,1,   1,   1,   1,0.98336, -19.0791, 1.04000, 0.95000, 1.04000, 0.95000
   98,'98          ', 345.0000,1,   1,   1,   1,1.00697, -18.8635, 1.04000, 0.95000, 1.04000, 0.95000
   99,'99          ', 345.0000,1,   1,   1,   1,0.97351, -20.3841, 1.04000, 0.95000, 1.04000, 0.95000
  100,'100         ', 138.0000,1,   1,   1,   1,0.96343, -13.5892, 1.04000, 0.95000, 1.04000, 0.95000
  101,'101         ', 345.0000,1,   1,   1,   1,0.96960, -19.2122, 1.04000, 0.95000, 1.04000, 0.95000
  102,'102         ', 138.0000,1,   1,   1,   1,0.96519, -22.7227, 1.04000, 0.95000, 1.04000, 0.95000
  103,'103         ', 138.0000,2,   1,   1,   1,1.02000, -16.9412, 1.06000, 1.00000, 1.06000, 1.00000
  104,'104         ', 138.0000,1,   1,   1,   1,0.95078, -23.5970, 1.04000, 0.95000, 1.04000, 0.95000
  105,'105         ', 138.0000,1,   1,   1,   1,0.96548, -21.4178, 1.04000, 0.95000, 1.04000, 0.95000
  106,'106         ', 138.0000,1,   1,   1,   1,0.95394, -23.8576, 1.04000, 0.95000, 1.04000, 0.95000
  107,'107         ', 138.0000,1,   1,   1,   1,0.95573, -23.3512, 1.04000, 0.95000, 1.04000, 0.95000
  108,'108         ', 230.0000,1,   1,   1,   1,0.95334, -23.7507, 1.04000, 0.95000, 1.04000, 0.95000
  109,'109         ', 138.0000,1,   1,   1,   1,0.95970, -24.2166, 1.04000, 0.95000, 1.04000, 0.95000
  110,'110         ', 138.0000,1,   1,   1,   1,0.96601, -20.3109, 1.04000, 0.95000, 1.04000, 0.95000
  111,'111         ', 345.0000,1,   1,   1,   1,0.97100, -20.6900, 1.04000, 0.95000, 1.04000, 0.95000
  112,'112         ', 138.0000,1,   1,   1,   1,0.94582, -27.3450, 1.04000, 0.95000, 1.04000, 0.95000
  113,'113         ', 138.0000,1,   1,   1,   1,0.94670, -29.0314, 1.04000, 0.95000, 1.04000, 0.95000
  114,'114         ', 138.0000,1,   1,   1,   1,0.96072, -22.8007, 1.04000, 0.95000, 1.04000, 0.95000
  115,'115         ', 345.0000,1,   1,   1,   1,0.97443, -17.8042, 1.04000, 0.95000, 1.04000, 0.95000
  116,'116         ', 230.0000,1,   1,   1,   1,0.98763, -20.2513, 1.04000, 0.95000, 1.04000, 0.95000
  117,'117         ', 138.0000,1,   1,   1,   1,0.97358, -21.3050, 1.04000, 0.95000, 1.04000, 0.95000
  118,'118         ', 138.0000,1,   1,   1,   1,0.96461, -22.0691, 1.04000, 0.95000, 1.04000, 0.95000
  119,'119         ', 138.0000,1,   1,   1,   1,0.95864, -23.0668, 1.04000, 0.95000, 1.04000, 0.95000
  120,'120         ', 230.0000,2,   1,   1,   1,1.00040, -19.7617, 1.06000, 1.00000, 1.06000, 1.00000
  121,'121         ', 230.0000,1,   1,   1,   1,0.99340, -20.4150, 1.04000, 0.95000, 1.04000, 0.95000
  122,'122         ', 138.0000,1,   1,   1,   1,0.95387, -23.9722, 1.04000, 0.95000, 1.04000, 0.95000
  123,'123         ', 230.0000,1,   1,   1,   1,0.99167, -19.4510, 1.04000, 0.95000, 1.04000, 0.95000
  124,'124         ', 230.0000,1,   1,   1,   1,0.94407, -25.1860, 1.04000, 0.95000, 1.04000, 0.95000
  125,'125         ', 138.0000,1,   1,   1,   1,0.95601, -25.7387, 1.04000, 0.95000, 1.04000, 0.95000
  126,'126         ', 230.0000,1,   1,   1,   1,0.96305, -23.9066, 1.04000, 0.95000, 1.04000, 0.95000
  127,'127         ', 230.0000,1,   1,   1,   1,0.95618, -24.3151, 1.04000, 0.95000, 1.04000, 0.95000
  128,'128         ', 138.0000,2,   1,   1,   1,1.02000, -20.5710, 1.06000, 1.00000, 1.06000, 1.00000
  129,'129         ', 138.0000,1,   1,   1,   1,0.94704, -26.7384, 1.04000, 0.95000, 1.04000, 0.95000
  130,'130         ', 138.0000,2,   1,   1,   1,1.02000, -22.3226, 1.06000, 1.00000, 1.06000, 1.00000
  131,'131         ', 138.0000,1,   1,   1,   1,0.94481, -27.2466, 1.04000, 0.95000, 1.04000, 0.95000
  132,'132         ', 230.0000,1,   1,   1,   1,0.96591, -22.0109, 1.04000, 0.95000, 1.04000, 0.95000
  133,'133         ', 230.0000,1,   1,   1,   1,0.97265, -20.5083, 1.04000, 0.95000, 1.04000, 0.95000
  134,'134         ', 230.0000,1,   1,   1,   1,0.95884, -22.9859, 1.04000, 0.95000, 1.04000, 0.95000
  135,'135         ', 345.0000,1,   1,   1,   1,0.99267, -21.5527, 1.04000, 0.95000, 1.04000, 0.95000
  136,'136         ', 138.0000,1,   1,   1,   1,0.95546, -23.0364, 1.04000, 0.95000, 1.04000, 0.95000
  137,'137         ', 345.0000,1,   1,   1,   1,1.00403, -20.7234, 1.04000, 0.95000, 1.04000, 0.95000
  138,'138         ', 345.0000,1,   1,   1,   1,0.97060, -20.6360, 1.04000, 0.95000, 1.04000, 0.95000
  139,'139         ', 345.0000,1,   1,   1,   1,1.00648, -16.3559, 1.04000, 0.95000, 1.04000, 0.95000
  140,'140         ', 138.0000,1,   1,   1,   1,0.97976, -11.5246, 1.04000, 0.95000, 1.04000, 0.95000
  141,'141         ', 345.0000,2,   1,   1,   1,1.01500,  -6.8684, 1.06000, 1.00000, 1.06000, 1.00000
  142,'142         ', 230.0000,1,   1,   1,   1,0.94859, -24.5867, 1.04000, 0.95000, 1.04000, 0.95000
  143,'143         ', 230.0000,2,   1,   1,   1,1.01299, -18.0336, 1.06000, 1.00000, 1.06000, 1.00000
  144,'144         ', 230.0000,1,   1,   1,   1,1.00041, -19.6833, 1.04000, 0.95000, 1.04000, 0.95000
  145,'145         ', 138.0000,1,   1,   1,   1,0.97649, -24.1301, 1.04000, 0.95000, 1.04000, 0.95000
  146,'146         ', 345.0000,2,   1,   1,   1,1.01161, -19.8833, 1.06000, 1.00000, 1.06000, 1.00000
  147,'147         ', 138.0000,1,   1,   1,   1,0.95632, -24.0820, 1.04000, 0.95000, 1.04000, 0.95000
  148,'148         ', 345.0000,1,   1,   1,   1,0.97441, -18.3625, 1.04000, 0.95000, 1.04000, 0.95000
  149,'149         ', 138.0000,2,   1,   1,   1,1.02000, -22.3157, 1.06000, 1.00000, 1.06000, 1.00000
  150,'150         ', 345.0000,1,   1,   1,   1,0.94982, -18.2040, 1.04000, 0.95000, 1.04000, 0.95000
  151,'151         ', 345.0000,1,   1,   1,   1,1.00643, -20.4295, 1.04000, 0.95000, 1.04000, 0.95000
  152,'152         ', 138.0000,1,   1,   1,   1,0.94590, -27.7177, 1.04000, 0.95000, 1.04000, 0.95000
  153,'153         ', 345.0000,1,   1,   1,   1,0.98741, -21.9153, 1.04000, 0.95000, 1.04000, 0.95000
  154,'154         ', 230.0000,1,   1,   1,   1,0.95962, -22.6081, 1.04000, 0.95000, 1.04000, 0.95000
  155,'155         ', 138.0000,1,   1,   1,   1,0.94008, -23.6837, 1.04000, 0.95000, 1.04000, 0.95000
  156,'156         ', 345.0000,1,   1,   1,   1,0.99631, -15.7416, 1.04000, 0.95000, 1.04000, 0.95000
  157,'157         ', 138.0000,2,   1,   1,   1,1.02000, -16.3177, 1.06000, 1.00000, 1.06000, 1.00000
  158,'158         ', 138.0000,1,   1,   1,   1,0.97865, -21.6701, 1.04000, 0.95000, 1.04000, 0.95000
  159,'159         ', 345.0000,1,   1,   1,   1,0.99052, -23.7175, 1.04000, 0.95000, 1.04000, 0.95000
  160,'160         ', 230.0000,1,   1,   1,   1,0.93873, -27.4077, 1.04000, 0.95000, 1.04000, 0.95000
  161,'161         ', 138.0000,1,   1,   1,   1,0.97481, -21.2547, 1.04000, 0.95000, 1.04000, 0.95000
  162,'162         ', 345.0000,2,   1,   1,   1,1.02000, -15.1480, 1.06000, 1.00000, 1.06000, 1.00000
  163,'163         ', 230.0000,1,   1,   1,   1,0.99204, -20.2507, 1.04000, 0.95000, 1.04000, 0.95000
  164,'164         ', 138.0000,1,   1,   1,   1,0.96341, -21.7665, 1.04000, 0.95000, 1.04000, 0.95000
  165,'165         ', 230.0000,2,   1,   1,   1,1.02000, -13.2388, 1.06000, 1.00000, 1.06000, 1.00000
  166,'166         ', 138.0000,2,   1,   1,   1,1.02000, -16.2290, 1.06000, 1.00000, 1.06000, 1.00000
  167,'167         ', 345.0000,1,   1,   1,   1,1.01705, -19.1452, 1.04000, 0.95000, 1.04000, 0.95000
  168,'168         ', 230.0000,1,   1,   1,   1,0.97086, -17.1131, 1.04000, 0.95000, 1.04000, 0.95000
  169,'169         ', 138.0000,1,   1,   1,   1,0.97698, -18.2798, 1.04000, 0.95000, 1.04000, 0.95000
  170,'170         ', 138.0000,1,   1,   1,   1,0.94391, -15.8085, 1.04000, 0.95000, 1.04000, 0.95000
  171,'171         ', 138.0000,1,   1,   1,   1,0.94578, -15.3913, 1.04000, 0.95000, 1.04000, 0.95000
  172,'172         ', 138.0000,1,   1,   1,   1,0.96714, -10.5563, 1.04000, 0.95000, 1.04000, 0.95000
  173,'173         ', 138.0000,1,   1,   1,   1,0.96041, -10.1312, 1.04000, 0.95000, 1.04000, 0.95000
  174,'174         ', 345.0000,1,   1,   1,   1,1.00470, -13.9573, 1.04000, 0.95000, 1.04000, 0.95000
  175,'175         ', 138.0000,2,   1,   1,   1,1.02000, -12.4651, 1.06000, 1.00000, 1.06000, 1.00000
  176,'176         ', 345.0000,2,   1,   1,   1,1.02000, -19.5520, 1.06000, 1.00000, 1.06000, 1.00000
  177,'177         ', 230.0000,1,   1,   1,   1,1.00535, -16.1313, 1.04000, 0.95000, 1.04000, 0.95000
  178,'178         ', 138.0000,1,   1,   1,   1,0.97843, -19.7852, 1.04000, 0.95000, 1.04000, 0.95000
  179,'179         ', 138.0000,1,   1,   1,   1,0.97723, -19.8703, 1.04000, 0.95000, 1.04000, 0.95000
  180,'180         ', 345.0000,1,   1,   1,   1,1.00454, -14.0242, 1.04000, 0.95000, 1.04000, 0.95000
  181,'181         ', 345.0000,1,   1,   1,   1,1.02585,  -8.3720, 1.04000, 0.95000, 1.04000, 0.95000
  182,'182         ', 345.0000,1,   1,   1,   1,0.98692, -12.7447, 1.04000, 0.95000, 1.04000, 0.95000
  183,'183         ', 345.0000,1,   1,   1,   1,1.00153,  -9.4190, 1.04000, 0.95000, 1.04000, 0.95000
  184,'184         ', 230.0000,1,   1,   1,   1,1.00282,  -9.1532, 1.04000, 0.95000, 1.04000, 0.95000
  185,'185         ', 345.0000,1,   1,   1,   1,1.00625,  -9.9018, 1.04000, 0.95000, 1.04000, 0.95000
  186,'186         ', 345.0000,1,   1,   1,   1,0.99998, -10.3706, 1.04000, 0.95000, 1.04000, 0.95000
  187,'187         ', 345.0000,1,   1,   1,   1,1.01612,  -7.6978, 1.04000, 0.95000, 1.04000, 0.95000
  188,'188         ', 345.0000,1,   1,   1,   1,1.01624,  -3.5795, 1.04000, 0.95000, 1.04000, 0.95000
  189,'189         ', 345.0000,1,   1,   1,   1,1.01589,  -4.1632, 1.04000, 0.95000, 1.04000, 0.95000
  190,'190         ', 345.0000,1,   1,   1,   1,1.01238,  -9.4957, 1.04000, 0.95000, 1.04000, 0.95000
  191,'191         ', 345.0000,1,   1,   1,   1,1.01276, -13.7959, 1.04000, 0.95000, 1.04000, 0.95000
  192,'192         ', 230.0000,1,   1,   1,   1,0.99926, -18.9598, 1.04000, 0.95000, 1.04000, 0.95000
  193,'193         ', 345.0000,1,   1,   1,   1,1.00591, -17.7133, 1.04000, 0.95000, 1.04000, 0.95000
  194,'194         ', 345.0000,1,   1,   1,   1,1.00182, -19.2955, 1.04000, 0.95000, 1.04000, 0.95000
  195,'195         ', 230.0000,1,   1,   1,   1,0.96466, -22.1521, 1.04000, 0.95000, 1.04000, 0.95000
  196,'196         ', 345.0000,1,   1,   1,   1,0.97138, -20.3544, 1.04000, 0.95000, 1.04000, 0.95000
  197,'197         ', 230.0000,1,   1,   1,   1,0.96743, -22.8644, 1.04000, 0.95000, 1.04000, 0.95000
  198,'198         ', 345.0000,1,   1,   1,   1,0.97266, -21.2422, 1.04000, 0.95000, 1.04000, 0.95000
  199,'199         ', 345.0000,1,   1,   1,   1,0.98048, -16.9432, 1.04000, 0.95000, 1.04000, 0.95000
  200,'200         ', 345.0000,1,   1,   1,   1,1.00517, -16.2578, 1.04000, 0.95000, 1.04000, 0.95000
...
0 / END OF BUS DATA, BEGIN LOAD DATA
    1,'1 ',1,   1,   1,     0.000,     0.000,     0.000,     0.000,     0.000,     0.000,   1,1
    2,'1 ',1,   1,   1,   112.382,    37.540,     0.000,     0.000,     0.000,     0.000,   1,1
    3,'1 ',1,   1,   1,     0.000,     0.000,     0.000,     0.000,     0.000,     0.000,   1,1
    4,'1 ',1,   1,   1,    87.552,    26.865,     0.000,     0.000,     0.000,     0.000,   1,1
    5,'1 ',1,   1,   1,   109.298,    40.958,     0.000,     0.000,     0.000,     0.000,   1,1
    6,'1 ',1,   1,   1,   102.047,    33.366,     0.000,     0.000,     0.000,     0.000,   1,1
    7,'1 ',1,   1,   1,   172.769,    62.184,     0.000,     0.000,     0.000,     0.000,   1,1
    8,'1 ',1,   1,   1,   132.468,    41.050,     0.000,     0.000,     0.000,     0.000,   1,1
    9,'1 ',1,   1,   1,     0.000,     0.000,     0.000,     0.000,     0.000,     0.000,   1,1
   10,'1 ',1,   1,   1,   100.951,    34.842,     0.000,     0.000,     0.000,     0.000,   1,1
   11,'1 ',1,   1,   1,     0.000,     0.000,     0.000,     0.000,     0.000,     0.000,   1,1
   12,'1 ',1,   1,   1,     3.013,     1.160,     0.000,     0.000,     0.000,     0.000,   1,1
   13,'1 ',1,   1,   1,     0.000,     0.000,     0.000,     0.000,     0.000,     0.000,   1,1
   14,'1 ',1,   1,   1,   129.401,    46.158,     0.000,     0.000,     0.000,     0.000,   1,1
   15,'1 ',1,   1,   1,   152.784,    47.330,     0.000,     0.000,     0.000,     0.000,   1,1
   16,'1 ',1,   1,   1,   179.337,    51.399,     0.000,     0.000,     0.000,     0.000,   1,1
   17,'1 ',1,   1,   1,   102.909,    28.915,     0.000,     0.000,     0.000,     0.000,   1,1
   18,'1 ',1,   1,   1,   115.541,    36.020,     0.000,     0.000,     0.000,     0.000,   1,1
   19,'1 ',1,   1,   1,   119.428,    31.609,     0.000,     0.000,     0.000,     0.000,   1,1
   20,'1 ',1,   1,   1,   118.609,    33.429,     0.000,     0.000,     0.000,     0.000,   1,1
   21,'1 ',1,   1,   1,   161.422,    44.931,     0.000,     0.000,     0.000,     0.000,   1,1
   22,'1 ',1,   1,   1,   148.335,    43.585,     0.000,     0.000,     0.000,     0.000,   1,1
   23,'1 ',1,   1,   1,   113.747,    38.343,     0.000,     0.000,     0.000,     0.000,   1,1
   24,'1 ',1,   1,   1,   136.495,    48.935,     0.000,     0.000,     0.000,     0.000,   1,1
   25,'1 ',1,   1,   1,    77.657,    25.604,     0.000,     0.000,     0.000,     0.000,   1,1
   26,'1 ',1,   1,   1,    95.214,    27.160,     0.000,     0.000,     0.000,     0.000,   1,1
   27,'1 ',1,   1,   1,   114.761,    38.037,     0.000,     0.000,     0.000,     0.000,   1,1
   28,'1 ',1,   1,   1,   147.657,    48.262,     0.000,     0.000,     0.000,     0.000,   1,1
   29,'1 ',1,   1,   1,    93.134,    30.230,     0.000,     0.000,     0.000,     0.000,   1,1
   30,'1 ',1,   1,   1,     0.000,     0.000,     0.000,     0.000,     0.000,     0.000,   1,1
   31,'1 ',1,   1,   1,     0.000,     0.000,     0.000,     0.000,     0.000,     0.000,   1,1
   32,'1 ',1,   1,   1,     0.000,     0.000,     0.000,     0.000,     0.000,     0.000,   1,1
   33,'1 ',1,   1,   1,   148.451,    38.547,     0.000,     0.000,     0.000,     0.000,   1,1
   34,'1 ',1,   1,   1,    98.608,    31.048,     0.000,     0.000,     0.000,     0.000,   1,1
   35,'1 ',1,   1,   1,     0.000,     0.000,     0.000,     0.000,     0.000,     0.000,   1,1
   36,'1 ',1,   1,   1,     0.000,     0.000,     0.000,     0.000,     0.000,     0.000,   1,1
   37,'1 ',1,   1,   1,     0.000,     0.000,     0.000,     0.000,     0.000,     0.000,   1,1
   38,'1 ',1,   1,   1,     0.000,     0.000,     0.000,     0.000,     0.000,     0.000,   1,1
   39,'1 ',1,   1,   1,    90.048,    29.192,     0.000,     0.000,     0.000,     0.000,   1,1
   40,'1 ',1,   1,   1,    90.898,    27.254,     0.000,     0.000,     0.000,     0.000,   1,1
   41,'1 ',1,   1,   1,   116.801,    35.644,     0.000,     0.000,     0.000,     0.000,   1,1
   42,'1 ',1,   1,   1,   128.970,    39.760,     0.000,     0.000,     0.000,     0.000,   1,1
   43,'1 ',1,   1,   1,   119.028,    37.892,     0.000,     0.000,     0.000,     0.000,   1,1
   44,'1 ',1,   1,   1,    95.093,    33.750,     0.000,     0.000,     0.000,     0.000,   1,1
   45,'1 ',1,   1,   1,   132.196,    46.236,     0.000,     0.000,     0.000,     0.000,   1,1
   46,'1 ',1,   1,   1,   118.458,    37.556,     0.000,     0.000,     0.000,     0.000,   1,1
   47,'1 ',1,   1,   1,   109.093,    32.360,     0.000,     0.000,     0.000,     0.000,   1,1
   48,'1 ',1,   1,   1,   128.490,    37.849,     0.000,     0.000,     0.000,     0.000,   1,1
   49,'1 ',1,   1,   1,    87.056,    29.652,     0.000,     0.000,     0.000,     0.000,   1,1
   50,'1 ',1,   1,   1,   122.563,    37.103,     0.000,     0.000,     0.000,     0.000,   1,1
   51,'1 ',1,   1,   1,   110.605,    39.819,     0.000,     0.000,     0.000,     0.000,   1,1
   52,'1 ',1,   1,   1,   136.756,    46.146,     0.000,     0.000,     0.000,     0.000,   1,1
   53,'1 ',1,   1,   1,   193.714,    62.673,     0.000,     0.000,     0.000,     0.000,   1,1
   54,'1 ',1,   1,   1,    98.167,    35.623,     0.000,     0.000,     0.000,     0.000,   1,1
   55,'1 ',1,   1,   1,   130.585,    41.028,     0.000,     0.000,     0.000,     0.000,   1,1
   56,'1 ',1,   1,   1,   136.682,    43.175,     0.000,     0.000,     0.000,     0.000,   1,1
   57,'1 ',1,   1,   1,    83.681,    28.536,     0.000,     0.000,     0.000,     0.000,   1,1
   58,'1 ',1,   1,   1,   166.095,    53.469,     0.000,     0.000,     0.000,     0.000,   1,1
   59,'1 ',1,   1,   1,   106.913,    34.455,     0.000,     0.000,     0.000,     0.000,   1,1
   60,'1 ',1,   1,   1,   118.410,    39.379,     0.000,     0.000,     0.000,     0.000,   1,1
   61,'1 ',1,   1,   1,   139.330,    42.637,     0.000,     0.000,     0.000,     0.000,   1,1
   62,'1 ',1,   1,   1,   127.968,    46.648,     0.000,     0.000,     0.000,     0.000,   1,1
   63,'1 ',1,   1,   1,   102.518,    39.525,     0.000,     0.000,     0.000,     0.000,   1,1
   64,'1 ',1,   1,   1,   209.537,    65.199,     0.000,     0.000,     0.000,     0.000,   1,1
   65,'1 ',1,   1,   1,    90.019,    35.670,     0.000,     0.000,     0.000,     0.000,   1,1
   66,'1 ',1,   1,   1,   103.800,    39.229,     0.000,     0.000,     0.000,     0.000,   1,1
   67,'1 ',1,   1,   1,   116.670,    36.228,     0.000,     0.000,     0.000,     0.000,   1,1
   68,'1 ',1,   1,   1,   139.799,    49.462,     0.000,     0.000,     0.000,     0.000,   1,1
   69,'1 ',1,   1,   1,    84.221,    34.136,     0.000,     0.000,     0.000,     0.000,   1,1
   70,'1 ',1,   1,   1,   111.072,    38.870,     0.000,     0.000,     0.000,     0.000,   1,1
   71,'1 ',1,   1,   1,    91.711,    34.705,     0.000,     0.000,     0.000,     0.000,   1,1
   72,'1 ',1,   1,   1,    82.594,    31.814,     0.000,     0.000,     0.000,     0.000,   1,1
   73,'1 ',1,   1,   1,    94.580,    32.087,     0.000,     0.000,     0.000,     0.000,   1,1
   74,'1 ',1,   1,   1,   104.270,    32.980,     0.000,     0.000,     0.000,     0.000,   1,1
   75,'1 ',1,   1,   1,   108.743,    34.935,     0.000,     0.000,     0.000,     0.000,   1,1
   76,'1 ',1,   1,   1,   132.329,    38.000,     0.000,     0.000,     0.000,     0.000,   1,1
   77,'1 ',1,   1,   1,    94.690,    27.563,     0.000,     0.000,     0.000,     0.000,   1,1
   78,'1 ',1,   1,   1,   115.409,    35.209,     0.000,     0.000,     0.000,     0.000,   1,1
   79,'1 ',1,   1,   1,   149.132,    40.945,     0.000,     0.000,     0.000,     0.000,   1,1
   80,'1 ',1,   1,   1,   122.177,    33.594,     0.000,     0.000,     0.000,     0.000,   1,1
   81,'1 ',1,   1,   1,   130.720,    31.627,     0.000,     0.000,     0.000,     0.000,   1,1
   82,'1 ',1,   1,   1,    92.872,    27.063,     0.000,     0.000,     0.000,     0.000,   1,1
   83,'1 ',1,   1,   1,    97.732,    28.412,     0.000,     0.000,     0.000,     0.000,   1,1
   84,'1 ',1,   1,   1,    76.540,    24.919,     0.000,     0.000,     0.000,     0.000,   1,1
   85,'1 ',1,   1,   1,    84.439,    24.680,     0.000,     0.000,     0.000,     0.000,   1,1
   86,'1 ',1,   1,   1,   125.862,    31.193,     0.000,     0.000,     0.000,     0.000,   1,1
   87,'1 ',1,   1,   1,   141.088,    36.502,     0.000,     0.000,     0.000,     0.000,   1,1
   88,'1 ',1,   1,   1,   113.922,    38.759,     0.000,     0.000,     0.000,     0.000,   1,1
   89,'1 ',1,   1,   1,    90.626,    29.556,     0.000,     0.000,     0.000,     0.000,   1,1
   90,'1 ',1,   1,   1,    98.622,    33.087,     0.000,     0.000,     0.000,     0.000,   1,1
   91,'1 ',1,   1,   1,   112.843,    37.717,     0.000,     0.000,     0.000,     0.000,   1,1
   92,'1 ',1,   1,   1,   106.672,    28.864,     0.000,     0.000,     0.000,     0.000,   1,1
   93,'1 ',1,   1,   1,   120.496,    37.607,     0.000,     0.000,     0.000,     0.000,   1,1
   94,'1 ',1,   1,   1,   143.173,    45.907,     0.000,     0.000,     0.000,     0.000,   1,1
   95,'1 ',1,   1,   1,   133.368,    40.642,     0.000,     0.000,     0.000,     0.000,   1,1
   96,'1 ',1,   1,   1,   147.460,    44.919,     0.000,     0.000,     0.000,     0.000,   1,1
   97,'1 ',1,   1,   1,   145.234,    31.430,     0.000,     0.000,     0.000,     0.000,   1,1
   98,'1 ',1,   1,   1,   153.554,    40.933,     0.000,     0.000,     0.000,     0.000,   1,1
   99,'1 ',1,   1,   1,   145.671,    41.425,     0.000,     0.000,     0.000,     0.000,   1,1
  100,'1 ',1,   1,   1,   120.265,    37.283,     0.000,     0.000,     0.000,     0.000,   1,1
  101,'1 ',1,   1,   1,   113.331,    34.713,     0.000,     0.000,     0.000,     0.000,   1,1
  102,'1 ',1,   1,   1,    81.485,    33.187,     0.000,     0.000,     0.000,     0.000,   1,1
  103,'1 ',1,   1,   1,   170.333,    50.393,     0.000,     0.000,     0.000,     0.000,   1,1
  104,'1 ',1,   1,   1,   125.716,    36.412,     0.000,     0.000,     0.000,     0.000,   1,1
  105,'1 ',1,   1,   1,    98.672,    30.037,     0.000,     0.000,     0.000,     0.000,   1,1
  106,'1 ',1,   1,   1,   100.320,    30.908,     0.000,     0.000,     0.000,     0.000,   1,1
  107,'1 ',1,   1,   1,   112.474,    36.577,     0.000,     0.000,     0.000,     0.000,   1,1
  108,'1 ',1,   1,   1,   170.791,    49.172,     0.000,     0.000,     0.000,     0.000,   1,1
  109,'1 ',1,   1,   1,   137.689,    42.726,     0.000,     0.000,     0.000,     0.000,   1,1
  110,'1 ',1,   1,   1,    81.505,    31.725,     0.000,     0.000,     0.000,     0.000,   1,1
  111,'1 ',1,   1,   1,   130.913,    43.466,     0.000,     0.000,     0.000,     0.000,   1,1
  112,'1 ',1,   1,   1,   168.826,    46.770,     0.000,     0.000,     0.000,     0.000,   1,1
  113,'1 ',1,   1,   1,    80.827,    28.259,     0.000,     0.000,     0.000,     0.000,   1,1
  114,'1 ',1,   1,   1,    83.477,    29.925,     0.000,     0.000,     0.000,     0.000,   1,1
  115,'1 ',1,   1,   1,    91.765,    30.341,     0.000,     0.000,     0.000,     0.000,   1,1
  116,'1 ',1,   1,   1,   151.809,    41.332,     0.000,     0.000,     0.000,     0.000,   1,1
  117,'1 ',1,   1,   1,   121.426,    39.996,     0.000,     0.000,     0.000,     0.000,   1,1
  118,'1 ',1,   1,   1,    82.264,    27.193,     0.000,     0.000,     0.000,     0.000,   1,1
  119,'1 ',1,   1,   1,   146.001,    39.550,     0.000,     0.000,     0.000,     0.000,   1,1
  120,'1 ',1,   1,   1,    98.562,    34.736,     0.000,     0.000,     0.000,     0.000,   1,1
  121,'1 ',1,   1,   1,   114.747,    38.282,     0.000,     0.000,     0.000,     0.000,   1,1
  122,'1 ',1,   1,   1,    97.969,    33.724,     0.000,     0.000,     0.000,     0.000,   1,1
  123,'1 ',1,   1,   1,   134.744,    36.261,     0.000,     0.000,     0.000,     0.000,   1,1
  124,'1 ',1,   1,   1,   137.483,    36.292,     0.000,     0.000,     0.000,     0.000,   1,1
  125,'1 ',1,   1,   1,   142.262,    44.575,     0.000,     0.000,     0.000,     0.000,   1,1
  126,'1 ',1,   1,   1,   121.656,    32.880,     0.000,     0.000,     0.000,     0.000,   1,1
  127,'1 ',1,   1,   1,   138.359,    38.658,     0.000,     0.000,     0.000,     0.000,   1,1
  128,'1 ',1,   1,   1,   148.606,    41.269,     0.000,     0.000,     0.000,     0.000,   1,1
  129,'1 ',1,   1,   1,   118.533,    35.703,     0.000,     0.000,     0.000,     0.000,   1,1
  130,'1 ',1,   1,   1,   124.689,    38.704,     0.000,     0.000,     0.000,     0.000,   1,1
  131,'1 ',1,   1,   1,   160.120,    46.836,     0.000,     0.000,     0.000,     0.000,   1,1
  132,'1 ',1,   1,   1,   151.216,    36.441,     0.000,     0.000,     0.000,     0.000,   1,1
  133,'1 ',1,   1,   1,   104.193,    34.778,     0.000,     0.000,     0.000,     0.000,   1,1
  134,'1 ',1,   1,   1,   120.544,    35.690,     0.000,     0.000,     0.000,     0.000,   1,1
  135,'1 ',1,   1,   1,    95.572,    32.332,     0.000,     0.000,     0.000,     0.000,   1,1
  136,'1 ',1,   1,   1,   112.957,    36.724,     0.000,     0.000,     0.000,     0.000,   1,1
  137,'1 ',1,   1,   1,    94.857,    30.793,     0.000,     0.000,     0.000,     0.000,   1,1
  138,'1 ',1,   1,   1,   145.196,    41.018,     0.000,     0.000,     0.000,     0.000,   1,1
  139,'1 ',1,   1,   1,   129.811,    39.567,     0.000,     0.000,     0.000,     0.000,   1,1
  140,'1 ',1,   1,   1,   160.855,    43.643,     0.000,     0.000,     0.000,     0.000,   1,1
  141,'1 ',1,   1,   1,   148.433,    44.503,     0.000,     0.000,     0.000,     0.000,   1,1
  142,'1 ',1,   1,   1,   105.980,    38.439,     0.000,     0.000,     0.000,     0.000,   1,1
  143,'1 ',1,   1,   1,   142.334,    41.374,     0.000,     0.000,     0.000,     0.000,   1,1
  144,'1 ',1,   1,   1,   164.106,    49.862,     0.000,     0.000,     0.000,     0.000,   1,1
  145,'1 ',1,   1,   1,   132.695,    45.548,     0.000,     0.000,     0.000,     0.000,   1,1
  146,'1 ',1,   1,   1,   142.770,    44.817,     0.000,     0.000,     0.000,     0.000,   1,1
  147,'1 ',1,   1,   1,    99.636,    31.373,     0.000,     0.000,     0.000,     0.000,   1,1
  148,'1 ',1,   1,   1,   109.633,    34.043,     0.000,     0.000,     0.000,     0.000,   1,1
  149,'1 ',1,   1,   1,   170.602,    44.632,     0.000,     0.000,     0.000,     0.000,   1,1
  150,'1 ',1,   1,   1,   127.931,    39.796,     0.000,     0.000,     0.000,     0.000,   1,1
  151,'1 ',1,   1,   1,   111.847,    38.031,     0.000,     0.000,     0.000,     0.000,   1,1
  152,'1 ',1,   1,   1,    93.771,    27.731,     0.000,     0.000,     0.000,     0.000,   1,1
  153,'1 ',1,   1,   1,   107.294,    37.347,     0.000,     0.000,     0.000,     0.000,   1,1
  154,'1 ',1,   1,   1,   127.666,    41.625,     0.000,     0.000,     0.000,     0.000,   1,1
  155,'1 ',1,   1,   1,   117.857,    40.897,     0.000,     0.000,     0.000,     0.000,   1,1
  156,'1 ',1,   1,   1,   121.390,    40.998,     0.000,     0.000,     0.000,     0.000,   1,1
  157,'1 ',1,   1,   1,   120.291,    37.339,     0.000,     0.000,     0.000,     0.000,   1,1
  158,'1 ',1,   1,   1,   119.789,    32.921,     0.000,     0.000,     0.000,     0.000,   1,1
  159,'1 ',1,   1,   1,   122.934,    30.544,     0.000,     0.000,     0.000,     0.000,   1,1
  160,'1 ',1,   1,   1,   149.363,    53.946,     0.000,     0.000,     0.000,     0.000,   1,1
  161,'1 ',1,   1,   1,    85.587,    30.103,     0.000,     0.000,     0.000,     0.000,   1,1
  162,'1 ',1,   1,   1,   116.321,    38.720,     0.000,     0.000,     0.000,     0.000,   1,1
  163,'1 ',1,   1,   1,   139.585,    46.176,     0.000,     0.000,     0.000,     0.000,   1,1
  164,'1 ',1,   1,   1,   113.280,    43.169,     0.000,     0.000,     0.000,     0.000,   1,1
  165,'1 ',1,   1,   1,   118.719,    31.397,     0.000,     0.000,     0.000,     0.000,   1,1
  166,'1 ',1,   1,   1,   110.466,    34.322,     0.000,     0.000,     0.000,     0.000,   1,1
  167,'1 ',1,   1,   1,   110.428,    31.053,     0.000,     0.000,     0.000,     0.000,   1,1
  168,'1 ',1,   1,   1,    77.407,    29.188,     0.000,     0.000,     0.000,     0.000,   1,1
  169,'1 ',1,   1,   1,   112.823,    34.218,     0.000,     0.000,     0.000,     0.000,   1,1
  170,'1 ',1,   1,   1,   126.401,    40.235,     0.000,     0.000,     0.000,     0.000,   1,1
  171,'1 ',1,   1,   1,   112.227,    42.320,     0.000,     0.000,     0.000,     0.000,   1,1
  172,'1 ',1,   1,   1,   126.922,    38.641,     0.000,     0.000,     0.000,     0.000,   1,1
  173,'1 ',1,   1,   1,   115.079,    41.147,     0.000,     0.000,     0.000,     0.000,   1,1
  174,'1 ',1,   1,   1,   135.259,    45.989,     0.000,     0.000,     0.000,     0.000,   1,1
  175,'1 ',1,   1,   1,   108.676,    32.794,     0.000,     0.000,     0.000,     0.000,   1,1
  176,'1 ',1,   1,   1,   133.292,    41.850,     0.000,     0.000,     0.000,     0.000,   1,1
  177,'1 ',1,   1,   1,   184.232,    62.589,     0.000,     0.000,     0.000,     0.000,   1,1
  178,'1 ',1,   1,   1,   100.783,    33.648,     0.000,     0.000,     0.000,     0.000,   1,1
  179,'1 ',1,   1,   1,     9.249,     2.806,     0.000,     0.000,     0.000,     0.000,   1,1
  180,'1 ',1,   1,   1,    13.386,     4.247,     0.000,     0.000,     0.000,     0.000,   1,1
  181,'1 ',1,   1,   1,     0.000,     0.000,     0.000,     0.000,     0.000,     0.000,   1,1
  182,'1 ',1,   1,   1,     0.000,     0.000,     0.000,     0.000,     0.000,     0.000,   1,1
  183,'1 ',1,   1,   1,     0.000,     0.000,     0.000,     0.000,     0.000,     0.000,   1,1
  184,'1 ',1,   1,   1,     0.000,     0.000,     0.000,     0.000,     0.000,     0.000,   1,1
  185,'1 ',1,   1,   1,     0.000,     0.000,     0.000,     0.000,     0.000,     0.000,   1,1
  186,'1 ',1,   1,   1,     0.000,     0.000,     0.000,     0.000,     0.000,     0.000,   1,1
  187,'1 ',1,   1,   1,     0.000,     0.000,     0.000,     0.000,     0.000,     0.000,   1,1
  188,'1 ',1,   1,   1,     0.000,     0.000,     0.000,     0.000,     0.000,     0.000,   1,1
  189,'1 ',1,   1,   1,     0.000,     0.000,     0.000,     0.000,     0.000,     0.000,   1,1
  190,'1 ',1,   1,   1,     0.000,     0.000,     0.000,     0.000,     0.000,     0.000,   1,1
  191,'1 ',1,   1,   1,     0.000,     0.000,     0.000,     0.000,     0.000,     0.000,   1,1
  192,'1 ',1,   1,   1,     0.000,     0.000,     0.000,     0.000,     0.000,     0.000,   1,1
  193,'1 ',1,   1,   1,     0.000,     0.000,     0.000,     0.000,     0.000,     0.000,   1,1
  194,'1 ',1,   1,   1,     0.000,     0.000,     0.000,     0.000,     0.000,     0.000,   1,1
  195,'1 ',1,   1,   1,     0.000,     0.000,     0.000,     0.000,     0.000,     0.000,   1,1
  196,'1 ',1,   1,   1,     0.000,     0.000,     0.000,     0.000,     0.000,     0.000,   1,1
  197,'1 ',1,   1,   1,     0.000,     0.000,     0.000,     0.000,     0.000,     0.000,   1,1
  198,'1 ',1,   1,   1,     0.000,     0.000,     0.000,     0.000,     0.000,     0.000,   1,1
  199,'1 ',1,   1,   1,     0.000,     0.000,     0.000,     0.000,     0.000,     0.000,   1,1
  200,'1 ',1,   1,   1,     0.000,     0.000,     0.000,     0.000,     0.000,     0.000,   1,1
...
0 / END OF LOAD DATA, BEGIN FIXED SHUNT DATA
    47,' 1', 1,     0.000,    40.000
    60,' 1', 1,     0.000,    20.000
    63,' 1', 1,     0.000,    10.000
    89,' 1', 1,     0.000,     5.000
   112,' 1', 1,     0.000,    20.000
   113,' 1', 1,     0.000,    50.000
   152,' 1', 1,     0.000,    30.000
   170,' 1', 1,     0.000,    40.000
0 / END OF FIXED SHUNT DATA, BEGIN GENERATOR DATA
    1,'1 ',   226.704,   -82.637,   103.000,  -103.000,1.02000,    0,   100.000,   0.00000,   1.00000,   0.00000,   0.00000,1.00000,1,  100.0,   338.000,     3.000,   1,1.0000,   0,1.0000,   0,1.0000,   0,1.0000,1, 1.0000
    3,'1 ',   460.114,    37.356,   392.000,  -209.000,1.02000,    0,   100.000,   0.00000,   1.00000,   0.00000,   0.00000,1.00000,1,  100.0,   686.000,   298.000,   1,1.0000,   0,1.0000,   0,1.0000,   0,1.0000,0, 1.0000
    7,'1 ',   452.066,   193.728,   385.000,  -205.000,1.02000,    0,   100.000,   0.00000,   1.00000,   0.00000,   0.00000,1.00000,1,  100.0,   674.000,   139.000,   1,1.0000,   0,1.0000,   0,1.0000,   0,1.0000,0, 1.0000
    8,'1 ',   409.810,   173.371,   349.000,  -186.000,1.02000,    0,   100.000,   0.00000,   1.00000,   0.00000,   0.00000,1.00000,1,  100.0,   611.000,   189.000,   1,1.0000,   0,1.0000,   0,1.0000,   0,1.0000,0, 1.0000
   10,'1 ',  1763.865,   248.032,  1298.000,  -692.000,1.02000,    0,   100.000,   0.00000,   1.00000,   0.00000,   0.00000,1.00000,1,  100.0,  2271.000,  1406.000,   1,1.0000,   0,1.0000,   0,1.0000,   0,1.0000,0, 1.0000
   24,'1 ',   362.860,   244.603,   309.000,  -165.000,1.02000,    0,   100.000,   0.00000,   1.00000,   0.00000,   0.00000,1.00000,1,  100.0,   541.000,   288.000,   1,1.0000,   0,1.0000,   0,1.0000,   0,1.0000,0, 1.0000
   26,'1 ',   201.216,    69.719,   171.000,   -91.000,1.02000,    0,   100.000,   0.00000,   1.00000,   0.00000,   0.00000,1.00000,1,  100.0,   300.000,   120.000,   1,1.0000,   0,1.0000,   0,1.0000,   0,1.0000,0, 1.0000
   28,'1 ',   397.067,   122.790,   338.000,  -180.000,1.02000,    0,   100.000,   0.00000,   1.00000,   0.00000,   0.00000,1.00000,1,  100.0,   592.000,   216.000,   1,1.0000,   0,1.0000,   0,1.0000,   0,1.0000,0, 1.0000
   30,'1 ',   176.399,    14.398,   150.000,   -80.000,1.02000,    0,   100.000,   0.00000,   1.00000,   0.00000,   0.00000,1.00000,1,  100.0,   263.000,   125.000,   1,1.0000,   0,1.0000,   0,1.0000,   0,1.0000,0, 1.0000
   31,'1 ',   536.576,   103.623,   457.000,  -244.000,1.02000,    0,   100.000,   0.00000,   1.00000,   0.00000,   0.00000,1.00000,1,  100.0,   800.000,   241.000,   1,1.0000,   0,1.0000,   0,1.0000,   0,1.0000,0, 1.0000
   32,'1 ',   458.102,    20.208,   390.000,  -208.000,1.02000,    0,   100.000,   0.00000,   1.00000,   0.00000,   0.00000,1.00000,1,  100.0,   683.000,   163.000,   1,1.0000,   0,1.0000,   0,1.0000,   0,1.0000,0, 1.0000
   33,'1 ',   445.358,   329.894,   379.000,  -202.000,1.02000,    0,   100.000,   0.00000,   1.00000,   0.00000,   0.00000,1.00000,1,  100.0,   664.000,   379.000,   1,1.0000,   0,1.0000,   0,1.0000,   0,1.0000,0, 1.0000
   34,'1 ',   829.681,   230.529,   707.000,  -377.000,1.02000,    0,   100.000,   0.00000,   1.00000,   0.00000,   0.00000,1.00000,1,  100.0,  1237.000,   295.000,   1,1.0000,   0,1.0000,   0,1.0000,   0,1.0000,0, 1.0000
   35,'1 ',   929.619,   289.200,   792.000,  -422.000,1.02000,    0,   100.000,   0.00000,   1.00000,   0.00000,   0.00000,1.00000,1,  100.0,  1386.000,   924.000,   1,1.0000,   0,1.0000,   0,1.0000,   0,1.0000,0, 1.0000
   36,'1 ',   394.384,   108.752,   336.000,  -179.000,1.02000,    0,   100.000,   0.00000,   1.00000,   0.00000,   0.00000,1.00000,1,  100.0,   588.000,   140.000,   1,1.0000,   0,1.0000,   0,1.0000,   0,1.0000,0, 1.0000
   37,'1 ',   380.299,   103.741,   324.000,  -173.000,1.02000,    0,   100.000,   0.00000,   1.00000,   0.00000,   0.00000,1.00000,1,  100.0,   567.000,   100.000,   1,1.0000,   0,1.0000,   0,1.0000,   0,1.0000,0, 1.0000
   38,'1 ',   584.868,    76.435,   498.000,  -266.000,1.02000,    0,   100.000,   0.00000,   1.00000,   0.00000,   0.00000,1.00000,1,  100.0,   872.000,   208.000,   1,1.0000,   0,1.0000,   0,1.0000,   0,1.0000,0, 1.0000
   49,'1 ',   407.127,   157.413,   347.000,  -185.000,1.02000,    0,   100.000,   0.00000,   1.00000,   0.00000,   0.00000,1.00000,1,  100.0,   607.000,   320.000,   1,1.0000,   0,1.0000,   0,1.0000,   0,1.0000,0, 1.0000
   52,'1 ',  1101.323,   210.789,   938.000,  -500.000,1.02000,    0,   100.000,   0.00000,   1.00000,   0.00000,   0.00000,1.00000,1,  100.0,  1642.000,   162.000,   1,1.0000,   0,1.0000,   0,1.0000,   0,1.0000,0, 1.0000
   54,'1 ',   366.213,    19.533,   312.000,  -166.000,1.02000,    0,   100.000,   0.00000,   1.00000,   0.00000,   0.00000,1.00000,1,  100.0,   546.000,   208.000,   1,1.0000,   0,1.0000,   0,1.0000,   0,1.0000,0, 1.0000
   56,'1 ',   488.285,   284.536,   416.000,  -222.000,1.02000,    0,   100.000,   0.00000,   1.00000,   0.00000,   0.00000,1.00000,1,  100.0,   728.000,   416.000,   1,1.0000,   0,1.0000,   0,1.0000,   0,1.0000,0, 1.0000
   69,'1 ',   348.775,   168.404,   297.000,  -158.000,1.02000,    0,   100.000,   0.00000,   1.00000,   0.00000,   0.00000,1.00000,1,  100.0,   520.000,   149.000,   1,1.0000,   0,1.0000,   0,1.0000,   0,1.0000,0, 1.0000
   72,'1 ',   176.399,   150.000,   150.000,   -80.000,1.02000,    0,   100.000,   0.00000,   1.00000,   0.00000,   0.00000,1.00000,1,  100.0,   263.000,    85.000,   1,1.0000,   0,1.0000,   0,1.0000,   0,1.0000,0, 1.0000
   76,'1 ',   591.575,   306.690,   504.000,  -269.000,1.02000,    0,   100.000,   0.00000,   1.00000,   0.00000,   0.00000,1.00000,1,  100.0,   882.000,   435.000,   1,1.0000,   0,1.0000,   0,1.0000,   0,1.0000,0, 1.0000
   78,'1 ',   193.168,   -45.756,   165.000,   -88.000,1.02000,    0,   100.000,   0.00000,   1.00000,   0.00000,   0.00000,1.00000,1,  100.0,   288.000,   130.000,   1,1.0000,   0,1.0000,   0,1.0000,   0,1.0000,0, 1.0000
   80,'1 ',   387.676,   -67.941,   330.000,  -176.000,1.02000,    0,   100.000,   0.00000,   1.00000,   0.00000,   0.00000,1.00000,1,  100.0,   578.000,   113.000,   1,1.0000,   0,1.0000,   0,1.0000,   0,1.0000,0, 1.0000
   82,'1 ',   209.936,   -30.644,   179.000,   -95.000,1.02000,    0,   100.000,   0.00000,   1.00000,   0.00000,   0.00000,1.00000,1,  100.0,   313.000,   176.000,   1,1.0000,   0,1.0000,   0,1.0000,   0,1.0000,0, 1.0000
   84,'1 ',   595.600,    96.343,   508.000,  -271.000,1.02000,    0,   100.000,   0.00000,   1.00000,   0.00000,   0.00000,1.00000,1,  100.0,   888.000,   169.000,   1,1.0000,   0,1.0000,   0,1.0000,   0,1.0000,0, 1.0000
  103,'1 ',   614.380,   303.441,   523.000,  -279.000,1.02000,    0,   100.000,   0.00000,   1.00000,   0.00000,   0.00000,1.00000,1,  100.0,   916.000,   208.000,   1,1.0000,   0,1.0000,   0,1.0000,   0,1.0000,0, 1.0000
  120,'1 ',   566.759,   350.000,   350.000,  -258.000,1.02000,    0,   100.000,   0.00000,   1.00000,   0.00000,   0.00000,1.00000,1,  100.0,   845.000,   161.000,   1,1.0000,   0,1.0000,   0,1.0000,   0,1.0000,0, 1.0000
  128,'1 ',   253.532,    59.767,   216.000,  -115.000,1.02000,    0,   100.000,   0.00000,   1.00000,   0.00000,   0.00000,1.00000,1,  100.0,   378.000,   180.000,   1,1.0000,   0,1.0000,   0,1.0000,   0,1.0000,0, 1.0000
  130,'1 ',   179.082,   132.484,   153.000,   -81.000,1.02000,    0,   100.000,   0.00000,   1.00000,   0.00000,   0.00000,1.00000,1,  100.0,   267.000,   115.000,   1,1.0000,   0,1.0000,   0,1.0000,   0,1.0000,0, 1.0000
  141,'1 ',  1134.188,   350.000,   350.000,  -515.000,1.02000,    0,   100.000,   0.00000,   1.00000,   0.00000,   0.00000,1.00000,1,  100.0,  1691.000,   877.000,   1,1.0000,   0,1.0000,   0,1.0000,   0,1.0000,0, 1.0000
  143,'1 ',   203.228,   173.000,   173.000,   -92.000,1.02000,    0,   100.000,   0.00000,   1.00000,   0.00000,   0.00000,1.00000,1,  100.0,   303.000,   155.000,   1,1.0000,   0,1.0000,   0,1.0000,   0,1.0000,0, 1.0000
  146,'1 ',   407.127,   347.000,   347.000,  -185.000,1.02000,    0,   100.000,   0.00000,   1.00000,   0.00000,   0.00000,1.00000,1,  100.0,   607.000,   300.000,   1,1.0000,   0,1.0000,   0,1.0000,   0,1.0000,0, 1.0000
  149,'1 ',   186.000,   124.863,   157.000,   -83.000,1.02000,    0,   100.000,   0.00000,   1.00000,   0.00000,   0.00000,1.00000,1,  100.0,   274.000,   186.000,   1,1.0000,   0,1.0000,   0,1.0000,   0,1.0000,0, 1.0000
  157,'1 ',   349.445,   135.534,   298.000,  -159.000,1.02000,    0,   100.000,   0.00000,   1.00000,   0.00000,   0.00000,1.00000,1,  100.0,   521.000,   288.000,   1,1.0000,   0,1.0000,   0,1.0000,   0,1.0000,0, 1.0000
  162,'1 ',   426.578,   198.625,   363.000,  -194.000,1.02000,    0,   100.000,   0.00000,   1.00000,   0.00000,   0.00000,1.00000,1,  100.0,   636.000,   230.000,   1,1.0000,   0,1.0000,   0,1.0000,   0,1.0000,0, 1.0000
  165,'1 ',   874.619,   173.968,   745.000,  -397.000,1.02000,    0,   100.000,   0.00000,   1.00000,   0.00000,   0.00000,1.00000,1,  100.0,  1304.000,   782.000,   1,1.0000,   0,1.0000,   0,1.0000,   0,1.0000,0, 1.0000
  166,'1 ',   556.698,   191.567,   474.000,  -253.000,1.02000,    0,   100.000,   0.00000,   1.00000,   0.00000,   0.00000,1.00000,1,  100.0,   830.000,   277.000,   1,1.0000,   0,1.0000,   0,1.0000,   0,1.0000,0, 1.0000
  175,'1 ',   419.871,    93.696,   358.000,  -191.000,1.02000,    0,   100.000,   0.00000,   1.00000,   0.00000,   0.00000,1.00000,1,  100.0,   626.000,   209.000,   1,1.0000,   0,1.0000,   0,1.0000,   0,1.0000,0, 1.0000
  176,'1 ',   179.082,    83.822,   153.000,   -81.000,1.02000,    0,   100.000,   0.00000,   1.00000,   0.00000,   0.00000,1.00000,1,  100.0,   267.000,    86.000,   1,1.0000,   0,1.0000,   0,1.0000,   0,1.0000,0, 1.0000
0 / END OF GENERATOR DATA, BEGIN BRANCH DATA
    1,     2,'1 ', 0.00598, 0.12062,1.98515, 414.51, 414.51, 414.51,  0.00000,  0.00000,  0.00000,  0.00000,1,1, 239.2,   1,1.0000,   0,1.0000,   0,1.0000,   0,1.0000
    2,    39,'1 ', 0.00868, 0.06020,0.52937, 530.03, 530.03, 530.03,  0.00000,  0.00000,  0.00000,  0.00000,1,1,  86.8,   1,1.0000,   0,1.0000,   0,1.0000,   0,1.0000
    2,   139,'1 ', 0.00339, 0.02318,0.20974, 530.03, 530.03, 530.03,  0.00000,  0.00000,  0.00000,  0.00000,1,1,  33.9,   1,1.0000,   0,1.0000,   0,1.0000,   0,1.0000
    2,   181,'1 ', 0.00761, 0.05275,0.46393, 530.03, 530.03, 530.03,  0.00000,  0.00000,  0.00000,  0.00000,1,1,  76.1,   1,1.0000,   0,1.0000,   0,1.0000,   0,1.0000
    2,   201,'1 ', 0.00274, 0.01875,0.16965, 530.03, 530.03, 530.03,  0.00000,  0.00000,  0.00000,  0.00000,1,1,  27.4,   1,1.0000,   0,1.0000,   0,1.0000,   0,1.0000
    3,    18,'1 ', 0.00383, 0.15813,0.09685, 316.20, 316.20, 316.20,  0.00000,  0.00000,  0.00000,  0.00000,1,1,  60.3,   1,1.0000,   0,1.0000,   0,1.0000,   0,1.0000
    4,    75,'1 ', 0.01684, 0.03812,0.00951, 107.32, 107.32, 107.32,  0.00000,  0.00000,  0.00000,  0.00000,1,1,   9.2,   1,1.0000,   0,1.0000,   0,1.0000,   0,1.0000
    5,     8,'1 ', 0.00296, 0.03933,0.08406, 578.83, 578.83, 578.83,  0.00000,  0.00000,  0.00000,  0.00000,1,1,  27.9,   1,1.0000,   0,1.0000,   0,1.0000,   0,1.0000
    5,   184,'1 ', 0.04502, 0.11101,0.17939, 178.87, 178.87, 178.87,  0.00000,  0.00000,  0.00000,  0.00000,1,1,  68.6,   1,1.0000,   0,1.0000,   0,1.0000,   0,1.0000
    5,   207,'1 ', 0.00112, 0.01328,0.03027, 541.39, 541.39, 541.39,  0.00000,  0.00000,  0.00000,  0.00000,1,1,   9.7,   1,1.0000,   0,1.0000,   0,1.0000,   0,1.0000
    6,     7,'1 ', 0.06200, 0.14575,0.03365, 107.32, 107.32, 107.32,  0.00000,  0.00000,  0.00000,  0.00000,1,1,  34.0,   1,1.0000,   0,1.0000,   0,1.0000,   0,1.0000
    6,    70,'1 ', 0.03364, 0.07769,0.01859, 107.32, 107.32, 107.32,  0.00000,  0.00000,  0.00000,  0.00000,1,1,  18.5,   1,1.0000,   0,1.0000,   0,1.0000,   0,1.0000
    8,    54,'1 ', 0.00033, 0.00508,0.01216, 665.28, 665.28, 665.28,  0.00000,  0.00000,  0.00000,  0.00000,1,1,   3.8,   1,1.0000,   0,1.0000,   0,1.0000,   0,1.0000
  187,     9,'1 ', 0.00684, 0.04742,0.41703, 530.03, 530.03, 530.03,  0.00000,  0.00000,  0.00000,  0.00000,1,1,  68.4,   1,1.0000,   0,1.0000,   0,1.0000,   0,1.0000
   10,    11,'1 ', 0.00032, 0.00856,0.00495, 566.01, 566.01, 566.01,  0.00000,  0.00000,  0.00000,  0.00000,1,1,   3.2,   1,1.0000,   0,1.0000,   0,1.0000,   0,1.0000
   10,    70,'1 ', 0.00580, 0.06727,0.02063, 324.83, 324.83, 324.83,  0.00000,  0.00000,  0.00000,  0.00000,1,1,  18.1,   1,1.0000,   0,1.0000,   0,1.0000,   0,1.0000
   11,   173,'1 ', 0.01667, 0.12408,0.03486, 237.35, 237.35, 237.35,  0.00000,  0.00000,  0.00000,  0.00000,1,1,  31.9,   1,1.0000,   0,1.0000,   0,1.0000,   0,1.0000
  188,    13,'1 ', 0.00011, 0.00195,0.02003,1045.73,1045.73,1045.73,  0.00000,  0.00000,  0.00000,  0.00000,1,1,   3.0,   1,1.0000,   0,1.0000,   0,1.0000,   0,1.0000
   13,   190,'1 ', 0.00085, 0.01791,0.26779,1060.07,1060.07,1060.07,  0.00000,  0.00000,  0.00000,  0.00000,1,1,  33.9,   1,1.0000,   0,1.0000,   0,1.0000,   0,1.0000
   14,    15,'1 ', 0.03611, 0.08904,0.14388, 178.87, 178.87, 178.87,  0.00000,  0.00000,  0.00000,  0.00000,1,1,  55.0,   1,1.0000,   0,1.0000,   0,1.0000,   0,1.0000
   14,   177,'1 ', 0.01882, 0.06776,0.11459, 229.46, 229.46, 229.46,  0.00000,  0.00000,  0.00000,  0.00000,1,1,  42.5,   1,1.0000,   0,1.0000,   0,1.0000,   0,1.0000
   15,    61,'1 ', 0.00413, 0.02750,0.05200, 353.36, 353.36, 353.36,  0.00000,  0.00000,  0.00000,  0.00000,1,1,  18.4,   1,1.0000,   0,1.0000,   0,1.0000,   0,1.0000
  184,    15,'1 ', 0.00343, 0.04204,0.08894, 541.39, 541.39, 541.39,  0.00000,  0.00000,  0.00000,  0.00000,1,1,  29.7,   1,1.0000,   0,1.0000,   0,1.0000,   0,1.0000
   16,   149,'1 ', 0.01423, 0.04695,0.01231, 137.68, 137.68, 137.68,  0.00000,  0.00000,  0.00000,  0.00000,1,1,  11.6,   1,1.0000,   0,1.0000,   0,1.0000,   0,1.0000
   17,    18,'1 ', 0.05670, 0.19450,0.04709, 137.68, 137.68, 137.68,  0.00000,  0.00000,  0.00000,  0.00000,1,1,  46.1,   1,1.0000,   0,1.0000,   0,1.0000,   0,1.0000
   17,   145,'1 ', 0.04673, 0.10452,0.02669, 107.32, 107.32, 107.32,  0.00000,  0.00000,  0.00000,  0.00000,1,1,  25.6,   1,1.0000,   0,1.0000,   0,1.0000,   0,1.0000
   19,    96,'1 ', 0.05510, 0.12952,0.02990, 107.32, 107.32, 107.32,  0.00000,  0.00000,  0.00000,  0.00000,1,1,  30.2,   1,1.0000,   0,1.0000,   0,1.0000,   0,1.0000
   19,   105,'1 ', 0.00053, 0.01276,0.00724, 522.03, 522.03, 522.03,  0.00000,  0.00000,  0.00000,  0.00000,1,1,   4.7,   1,1.0000,   0,1.0000,   0,1.0000,   0,1.0000
   19,   110,'1 ', 0.00509, 0.02371,0.00609, 173.53, 173.53, 173.53,  0.00000,  0.00000,  0.00000,  0.00000,1,1,   5.8,   1,1.0000,   0,1.0000,   0,1.0000,   0,1.0000
   19,   118,'1 ', 0.00064, 0.01345,0.00755, 474.70, 474.70, 474.70,  0.00000,  0.00000,  0.00000,  0.00000,1,1,   4.9,   1,1.0000,   0,1.0000,   0,1.0000,   0,1.0000
   19,   175,'1 ', 0.05620, 0.25162,0.07017, 173.53, 173.53, 173.53,  0.00000,  0.00000,  0.00000,  0.00000,1,1,  64.5,   1,1.0000,   0,1.0000,   0,1.0000,   0,1.0000
   21,   129,'1 ', 0.00698, 0.03501,0.01005, 187.39, 187.39, 187.39,  0.00000,  0.00000,  0.00000,  0.00000,1,1,   9.1,   1,1.0000,   0,1.0000,   0,1.0000,   0,1.0000
   21,   130,'1 ', 0.00738, 0.06070,0.01884, 261.01, 261.01, 261.01,  0.00000,  0.00000,  0.00000,  0.00000,1,1,  16.4,   1,1.0000,   0,1.0000,   0,1.0000,   0,1.0000
   22,    23,'1 ', 0.01398, 0.03448,0.05572, 178.87, 178.87, 178.87,  0.00000,  0.00000,  0.00000,  0.00000,1,1,  21.3,   1,1.0000,   0,1.0000,   0,1.0000,   0,1.0000
   23,    24,'1 ', 0.04301, 0.10605,0.17137, 178.87, 178.87, 178.87,  0.00000,  0.00000,  0.00000,  0.00000,1,1,  65.6,   1,1.0000,   0,1.0000,   0,1.0000,   0,1.0000
   23,    90,'1 ', 0.00690, 0.02037,0.03648, 206.75, 206.75, 206.75,  0.00000,  0.00000,  0.00000,  0.00000,1,1,  13.2,   1,1.0000,   0,1.0000,   0,1.0000,   0,1.0000
   23,    91,'1 ', 0.01279, 0.05439,0.09557, 262.53, 262.53, 262.53,  0.00000,  0.00000,  0.00000,  0.00000,1,1,  35.1,   1,1.0000,   0,1.0000,   0,1.0000,   0,1.0000
   24,   177,'1 ', 0.00208, 0.01428,0.02528, 353.36, 353.36, 353.36,  0.00000,  0.00000,  0.00000,  0.00000,1,1,   9.2,   1,1.0000,   0,1.0000,   0,1.0000,   0,1.0000
   25,   133,'1 ', 0.00613, 0.04868,0.09258, 395.58, 395.58, 395.58,  0.00000,  0.00000,  0.00000,  0.00000,1,1,  32.6,   1,1.0000,   0,1.0000,   0,1.0000,   0,1.0000
   25,   168,'1 ', 0.01816, 0.04527,0.07160, 178.87, 178.87, 178.87,  0.00000,  0.00000,  0.00000,  0.00000,1,1,  27.7,   1,1.0000,   0,1.0000,   0,1.0000,   0,1.0000
   26,    42,'1 ', 0.00714, 0.04949,0.43522, 530.03, 530.03, 530.03,  0.00000,  0.00000,  0.00000,  0.00000,1,1,  71.4,   1,1.0000,   0,1.0000,   0,1.0000,   0,1.0000
   26,    43,'1 ', 0.00133, 0.00911,0.08245, 530.03, 530.03, 530.03,  0.00000,  0.00000,  0.00000,  0.00000,1,1,  13.3,   1,1.0000,   0,1.0000,   0,1.0000,   0,1.0000
   26,   202,'1 ', 0.01045, 0.07245,0.63716, 530.03, 530.03, 530.03,  0.00000,  0.00000,  0.00000,  0.00000,1,1, 104.5,   1,1.0000,   0,1.0000,   0,1.0000,   0,1.0000
   27,   160,'1 ', 0.02217, 0.05468,0.08835, 178.87, 178.87, 178.87,  0.00000,  0.00000,  0.00000,  0.00000,1,1,  33.8,   1,1.0000,   0,1.0000,   0,1.0000,   0,1.0000
   28,    77,'1 ', 0.06656, 0.15647,0.03612, 107.32, 107.32, 107.32,  0.00000,  0.00000,  0.00000,  0.00000,1,1,  36.5,   1,1.0000,   0,1.0000,   0,1.0000,   0,1.0000
   28,    88,'1 ', 0.00116, 0.01860,0.00608, 418.29, 418.29, 418.29,  0.00000,  0.00000,  0.00000,  0.00000,1,1,   5.1,   1,1.0000,   0,1.0000,   0,1.0000,   0,1.0000
   29,    84,'1 ', 0.00955, 0.09168,0.02681, 283.00, 283.00, 283.00,  0.00000,  0.00000,  0.00000,  0.00000,1,1,  24.0,   1,1.0000,   0,1.0000,   0,1.0000,   0,1.0000
   39,    43,'1 ', 0.00577, 0.04003,0.35199, 530.03, 530.03, 530.03,  0.00000,  0.00000,  0.00000,  0.00000,1,1,  57.7,   1,1.0000,   0,1.0000,   0,1.0000,   0,1.0000
   40,    43,'1 ', 0.00360, 0.02314,0.23770, 530.03, 530.03, 530.03,  0.00000,  0.00000,  0.00000,  0.00000,1,1,  36.0,   1,1.0000,   0,1.0000,   0,1.0000,   0,1.0000
  202,    41,'1 ', 0.00271, 0.01880,0.16536, 530.03, 530.03, 530.03,  0.00000,  0.00000,  0.00000,  0.00000,1,1,  27.1,   1,1.0000,   0,1.0000,   0,1.0000,   0,1.0000
   42,   167,'1 ', 0.00687, 0.04934,0.40438, 530.03, 530.03, 530.03,  0.00000,  0.00000,  0.00000,  0.00000,1,1,  68.7,   1,1.0000,   0,1.0000,   0,1.0000,   0,1.0000
   44,    55,'1 ', 0.00742, 0.02703,0.04470, 229.46, 229.46, 229.46,  0.00000,  0.00000,  0.00000,  0.00000,1,1,  16.8,   1,1.0000,   0,1.0000,   0,1.0000,   0,1.0000
   45,    52,'1 ', 0.00089, 0.00836,0.07659, 652.53, 652.53, 652.53,  0.00000,  0.00000,  0.00000,  0.00000,1,1,  12.3,   1,1.0000,   0,1.0000,   0,1.0000,   0,1.0000
  206,    45,'1 ', 0.00042, 0.00286,0.02611, 530.03, 530.03, 530.03,  0.00000,  0.00000,  0.00000,  0.00000,1,1,   4.2,   1,1.0000,   0,1.0000,   0,1.0000,   0,1.0000
   45,   212,'1 ', 0.00103, 0.00976,0.08940, 652.53, 652.53, 652.53,  0.00000,  0.00000,  0.00000,  0.00000,1,1,  14.3,   1,1.0000,   0,1.0000,   0,1.0000,   0,1.0000
   46,    47,'1 ', 0.01683, 0.10628,0.02894, 212.01, 212.01, 212.01,  0.00000,  0.00000,  0.00000,  0.00000,1,1,  26.9,   1,1.0000,   0,1.0000,   0,1.0000,   0,1.0000
   47,    63,'1 ', 0.03810, 0.08957,0.02068, 107.32, 107.32, 107.32,  0.00000,  0.00000,  0.00000,  0.00000,1,1,  20.9,   1,1.0000,   0,1.0000,   0,1.0000,   0,1.0000
   48,   150,'1 ', 0.00352, 0.02444,0.21489, 530.03, 530.03, 530.03,  0.00000,  0.00000,  0.00000,  0.00000,1,1,  35.2,   1,1.0000,   0,1.0000,   0,1.0000,   0,1.0000
  182,    48,'1 ', 0.00342, 0.02370,0.20841, 530.03, 530.03, 530.03,  0.00000,  0.00000,  0.00000,  0.00000,1,1,  34.2,   1,1.0000,   0,1.0000,   0,1.0000,   0,1.0000
   49,    65,'1 ', 0.00180, 0.03771,0.02118, 474.70, 474.70, 474.70,  0.00000,  0.00000,  0.00000,  0.00000,1,1,  13.8,   1,1.0000,   0,1.0000,   0,1.0000,   0,1.0000
   50,    65,'1 ', 0.00526, 0.03751,0.01148, 237.35, 237.35, 237.35,  0.00000,  0.00000,  0.00000,  0.00000,1,1,  10.1,   1,1.0000,   0,1.0000,   0,1.0000,   0,1.0000
   51,    68,'1 ', 0.00406, 0.03734,0.01192, 283.00, 283.00, 283.00,  0.00000,  0.00000,  0.00000,  0.00000,1,1,  10.2,   1,1.0000,   0,1.0000,   0,1.0000,   0,1.0000
...